
     RDKit          3D

 38 41  0  0  0  0  0  0  0  0999 V2000
    2.6551    0.6804   -1.4056 C   0  0  0  0  0  0  0  0  0  0  0  0
    1.7413   -0.4134   -1.9627 C   0  0  0  0  0  0  0  0  0  0  0  0
    2.3767   -1.8006   -1.8167 C   0  0  0  0  0  0  0  0  0  0  0  0
    2.1177   -2.7362   -2.5734 O   0  0  0  0  0  0  0  0  0  0  0  0
    3.1213   -2.0227   -0.6854 N   0  0  0  0  0  0  0  0  0  0  0  0
    3.4674   -1.0320    0.2370 C   0  0  0  0  0  0  0  0  0  0  0  0
    4.0813   -1.3931    1.4357 C   0  0  0  0  0  0  0  0  0  0  0  0
    4.4251   -0.4064    2.3604 C   0  0  0  0  0  0  0  0  0  0  0  0
    4.1673    0.9354    2.0795 C   0  0  0  0  0  0  0  0  0  0  0  0
    3.5706    1.2960    0.8707 C   0  0  0  0  0  0  0  0  0  0  0  0
    3.2115    0.3112   -0.0561 C   0  0  0  0  0  0  0  0  0  0  0  0
    0.4354   -0.4411   -1.3058 N   0  0  0  0  0  0  0  0  0  0  0  0
   -0.5415    0.4741   -1.6015 C   0  0  0  0  0  0  0  0  0  0  0  0
   -0.3859    1.3485   -2.4492 O   0  0  0  0  0  0  0  0  0  0  0  0
   -1.7602    0.3534   -0.8348 C   0  0  0  0  0  0  0  0  0  0  0  0
   -2.1666   -0.5319    0.1499 C   0  0  0  0  0  0  0  0  0  0  0  0
   -3.4816   -0.1748    0.5624 C   0  0  0  0  0  0  0  0  0  0  0  0
   -4.3870   -0.6941    1.5074 C   0  0  0  0  0  0  0  0  0  0  0  0
   -5.6370   -0.0837    1.6643 C   0  0  0  0  0  0  0  0  0  0  0  0
   -5.9879    1.0252    0.8969 C   0  0  0  0  0  0  0  0  0  0  0  0
   -5.1048    1.5568   -0.0478 C   0  0  0  0  0  0  0  0  0  0  0  0
   -3.8599    0.9338   -0.1904 C   0  0  0  0  0  0  0  0  0  0  0  0
   -2.8093    1.2280   -1.0246 N   0  0  0  0  0  0  0  0  0  0  0  0
    3.5063    0.8242   -2.0835 H   0  0  0  0  0  0  0  0  0  0  0  0
    2.1182    1.6341   -1.3441 H   0  0  0  0  0  0  0  0  0  0  0  0
    1.5809   -0.2232   -3.0310 H   0  0  0  0  0  0  0  0  0  0  0  0
    3.4164   -2.9794   -0.5366 H   0  0  0  0  0  0  0  0  0  0  0  0
    4.2900   -2.4338    1.6669 H   0  0  0  0  0  0  0  0  0  0  0  0
    4.8977   -0.6823    3.2999 H   0  0  0  0  0  0  0  0  0  0  0  0
    4.4418    1.7033    2.7990 H   0  0  0  0  0  0  0  0  0  0  0  0
    3.3960    2.3477    0.6537 H   0  0  0  0  0  0  0  0  0  0  0  0
    0.2953   -1.0932   -0.5479 H   0  0  0  0  0  0  0  0  0  0  0  0
   -1.5935   -1.3588    0.5461 H   0  0  0  0  0  0  0  0  0  0  0  0
   -4.1224   -1.5585    2.1088 H   0  0  0  0  0  0  0  0  0  0  0  0
   -6.3402   -0.4809    2.3922 H   0  0  0  0  0  0  0  0  0  0  0  0
   -6.9644    1.4847    1.0329 H   0  0  0  0  0  0  0  0  0  0  0  0
   -5.3811    2.4195   -0.6453 H   0  0  0  0  0  0  0  0  0  0  0  0
   -2.7899    1.9838   -1.6969 H   0  0  0  0  0  0  0  0  0  0  0  0
  1  2  1  0
  2  3  1  0
  3  4  2  0
  3  5  1  0
  5  6  1  0
  6  7  2  0
  7  8  1  0
  8  9  2  0
  9 10  1  0
 10 11  2  0
  2 12  1  0
 12 13  1  0
 13 14  2  0
 13 15  1  0
 15 16  2  0
 16 17  1  0
 17 18  2  0
 18 19  1  0
 19 20  2  0
 20 21  1  0
 21 22  2  0
 22 23  1  0
 11  1  1  0
 11  6  1  0
 23 15  1  0
 22 17  1  0
  1 24  1  0
  1 25  1  0
  2 26  1  0
  5 27  1  0
  7 28  1  0
  8 29  1  0
  9 30  1  0
 10 31  1  0
 12 32  1  0
 16 33  1  0
 18 34  1  0
 19 35  1  0
 20 36  1  0
 21 37  1  0
 23 38  1  0
M  END
