
     RDKit          3D

 55 58  0  0  0  0  0  0  0  0999 V2000
   -0.8895   -2.1748   -0.4037 C   0  0  0  0  0  0  0  0  0  0  0  0
   -1.2022   -0.9303    0.4189 C   0  0  1  0  0  0  0  0  0  0  0  0
   -0.3292    0.2566   -0.0446 C   0  0  0  0  0  0  0  0  0  0  0  0
   -0.8092    1.1073   -0.8046 O   0  0  0  0  0  0  0  0  0  0  0  0
    0.9903    0.3053    0.3759 N   0  0  0  0  0  0  0  0  0  0  0  0
    1.8510    1.3803   -0.1099 C   0  0  0  0  0  0  0  0  0  0  0  0
    3.3289    0.9511   -0.2555 C   0  0  0  0  0  0  0  0  0  0  0  0
    3.8227   -0.0086    0.7571 N   0  0  0  0  0  0  0  0  0  0  0  0
    2.9401   -0.0624    1.9266 C   0  0  0  0  0  0  0  0  0  0  0  0
    1.5076   -0.4592    1.5159 C   0  0  0  0  0  0  0  0  0  0  0  0
    5.2189    0.2429    1.1379 C   0  0  0  0  0  0  0  0  0  0  0  0
    6.1961    0.0548   -0.0039 C   0  0  0  0  0  0  0  0  0  0  0  0
    6.2655   -1.1679   -0.6889 C   0  0  0  0  0  0  0  0  0  0  0  0
    7.1745   -1.3471   -1.7325 C   0  0  0  0  0  0  0  0  0  0  0  0
    8.0274   -0.3083   -2.0998 C   0  0  0  0  0  0  0  0  0  0  0  0
    7.9725    0.9095   -1.4242 C   0  0  0  0  0  0  0  0  0  0  0  0
    7.0631    1.0908   -0.3802 C   0  0  0  0  0  0  0  0  0  0  0  0
   -2.5944   -0.5318    0.2263 N   0  0  0  0  0  0  0  0  0  0  0  0
   -3.6182   -1.0689    0.9668 C   0  0  0  0  0  0  0  0  0  0  0  0
   -3.4142   -1.9364    1.8112 O   0  0  0  0  0  0  0  0  0  0  0  0
   -4.9319   -0.5269    0.6914 C   0  0  0  0  0  0  0  0  0  0  0  0
   -6.0924   -0.7265    1.4231 C   0  0  0  0  0  0  0  0  0  0  0  0
   -7.1541   -0.0187    0.8007 C   0  0  0  0  0  0  0  0  0  0  0  0
   -8.5217    0.1513    1.0871 C   0  0  0  0  0  0  0  0  0  0  0  0
   -9.3064    0.9360    0.2340 C   0  0  0  0  0  0  0  0  0  0  0  0
   -8.7467    1.5431   -0.8885 C   0  0  0  0  0  0  0  0  0  0  0  0
   -7.3908    1.3864   -1.1926 C   0  0  0  0  0  0  0  0  0  0  0  0
   -6.6214    0.6003   -0.3268 C   0  0  0  0  0  0  0  0  0  0  0  0
   -5.2862    0.2712   -0.3747 N   0  0  0  0  0  0  0  0  0  0  0  0
   -1.0732   -1.9965   -1.4696 H   0  0  0  0  0  0  0  0  0  0  0  0
    0.1554   -2.4799   -0.3005 H   0  0  0  0  0  0  0  0  0  0  0  0
   -1.5199   -3.0163   -0.0975 H   0  0  0  0  0  0  0  0  0  0  0  0
   -1.0490   -1.1215    1.4843 H   0  0  0  0  0  0  0  0  0  0  0  0
    1.4876    1.7644   -1.0693 H   0  0  0  0  0  0  0  0  0  0  0  0
    1.7709    2.1982    0.6174 H   0  0  0  0  0  0  0  0  0  0  0  0
    3.9289    1.8699   -0.2733 H   0  0  0  0  0  0  0  0  0  0  0  0
    3.4515    0.4745   -1.2358 H   0  0  0  0  0  0  0  0  0  0  0  0
    2.9240    0.9086    2.4388 H   0  0  0  0  0  0  0  0  0  0  0  0
    3.3029   -0.8033    2.6491 H   0  0  0  0  0  0  0  0  0  0  0  0
    0.8343   -0.3107    2.3673 H   0  0  0  0  0  0  0  0  0  0  0  0
    1.4808   -1.5199    1.2473 H   0  0  0  0  0  0  0  0  0  0  0  0
    5.3212    1.2476    1.5688 H   0  0  0  0  0  0  0  0  0  0  0  0
    5.5223   -0.4607    1.9249 H   0  0  0  0  0  0  0  0  0  0  0  0
    5.5996   -1.9828   -0.4122 H   0  0  0  0  0  0  0  0  0  0  0  0
    7.2149   -2.2969   -2.2589 H   0  0  0  0  0  0  0  0  0  0  0  0
    8.7349   -0.4481   -2.9128 H   0  0  0  0  0  0  0  0  0  0  0  0
    8.6391    1.7188   -1.7104 H   0  0  0  0  0  0  0  0  0  0  0  0
    7.0358    2.0473    0.1363 H   0  0  0  0  0  0  0  0  0  0  0  0
   -2.7292    0.2938   -0.3429 H   0  0  0  0  0  0  0  0  0  0  0  0
   -6.1579   -1.3253    2.3235 H   0  0  0  0  0  0  0  0  0  0  0  0
   -8.9646   -0.3210    1.9588 H   0  0  0  0  0  0  0  0  0  0  0  0
  -10.3633    1.0703    0.4508 H   0  0  0  0  0  0  0  0  0  0  0  0
   -9.3739    2.1477   -1.5398 H   0  0  0  0  0  0  0  0  0  0  0  0
   -6.9591    1.8595   -2.0684 H   0  0  0  0  0  0  0  0  0  0  0  0
   -4.6636    0.5631   -1.1134 H   0  0  0  0  0  0  0  0  0  0  0  0
  1  2  1  0
  2  3  1  0
  3  4  2  0
  3  5  1  0
  5  6  1  0
  6  7  1  0
  7  8  1  0
  8  9  1  0
  9 10  1  0
  8 11  1  0
 11 12  1  0
 12 13  2  0
 13 14  1  0
 14 15  2  0
 15 16  1  0
 16 17  2  0
  2 18  1  0
 18 19  1  0
 19 20  2  0
 19 21  1  0
 21 22  2  0
 22 23  1  0
 23 24  2  0
 24 25  1  0
 25 26  2  0
 26 27  1  0
 27 28  2  0
 28 29  1  0
 10  5  1  0
 17 12  1  0
 29 21  1  0
 28 23  1  0
  1 30  1  0
  1 31  1  0
  1 32  1  0
  2 33  1  1
  6 34  1  0
  6 35  1  0
  7 36  1  0
  7 37  1  0
  9 38  1  0
  9 39  1  0
 10 40  1  0
 10 41  1  0
 11 42  1  0
 11 43  1  0
 13 44  1  0
 14 45  1  0
 15 46  1  0
 16 47  1  0
 17 48  1  0
 18 49  1  0
 22 50  1  0
 24 51  1  0
 25 52  1  0
 26 53  1  0
 27 54  1  0
 29 55  1  0
M  END
